data/radial_12bus/network.dss
Clear
Set DefaultBaseFrequency=60
New Circuit.Radial12Bus basekv=12.47 pu=1.0 phases=3 bus1=source
New LineCode.MAIN nphases=3 BaseFreq=60 units=km
~ rmatrix=[0.16 | 0.02 0.16 | 0.02 0.02 0.16]
~ xmatrix=[0.12 | 0.04 0.12 | 0.04 0.04 0.12]
New Line.L1 phases=3 bus1=source.1.2.3 bus2=b1.1.2.3 linecode=MAIN length=0.2 units=km
New Line.L2 phases=3 bus1=b1.1.2.3 bus2=b2.1.2.3 linecode=MAIN length=0.18 units=km
New Line.L3 phases=3 bus1=b2.1.2.3 bus2=b3.1.2.3 linecode=MAIN length=0.16 units=km
New Line.L4 phases=3 bus1=b3.1.2.3 bus2=b4.1.2.3 linecode=MAIN length=0.14 units=km
New Line.L5 phases=3 bus1=b2.1.2.3 bus2=b5.1.2.3 linecode=MAIN length=0.17 units=km
New Line.L6 phases=3 bus1=b5.1.2.3 bus2=b6.1.2.3 linecode=MAIN length=0.12 units=km
New Line.L7 phases=3 bus1=b5.1.2.3 bus2=b7.1.2.3 linecode=MAIN length=0.15 units=km
New Line.L8 phases=3 bus1=b1.1.2.3 bus2=b8.1.2.3 linecode=MAIN length=0.19 units=km
New Line.L9 phases=3 bus1=b8.1.2.3 bus2=b9.1.2.3 linecode=MAIN length=0.13 units=km
New Line.L10 phases=3 bus1=b9.1.2.3 bus2=b10.1.2.3 linecode=MAIN length=0.12 units=km
New Line.L11 phases=3 bus1=b8.1.2.3 bus2=b11.1.2.3 linecode=MAIN length=0.15 units=km
New Line.L12 phases=3 bus1=b11.1.2.3 bus2=b12.1.2.3 linecode=MAIN length=0.12 units=km
New Load.Load1 phases=3 bus1=b1.1.2.3 conn=wye model=1 kV=12.47 kW=0 kvar=0
New Load.Load2 phases=3 bus1=b2.1.2.3 conn=wye model=1 kV=12.47 kW=0 kvar=0
New Load.Load3 phases=3 bus1=b3.1.2.3 conn=wye model=1 kV=12.47 kW=0 kvar=0
New Load.Load4 phases=3 bus1=b4.1.2.3 conn=wye model=1 kV=12.47 kW=0 kvar=0
New Load.Load5 phases=3 bus1=b5.1.2.3 conn=wye model=1 kV=12.47 kW=0 kvar=0
New Load.Load6 phases=3 bus1=b6.1.2.3 conn=wye model=1 kV=12.47 kW=0 kvar=0
New Load.Load7 phases=3 bus1=b7.1.2.3 conn=wye model=1 kV=12.47 kW=0 kvar=0
New Load.Load8 phases=3 bus1=b8.1.2.3 conn=wye model=1 kV=12.47 kW=0 kvar=0
New Load.Load9 phases=3 bus1=b9.1.2.3 conn=wye model=1 kV=12.47 kW=0 kvar=0
New Load.Load10 phases=3 bus1=b10.1.2.3 conn=wye model=1 kV=12.47 kW=0 kvar=0
New Load.Load11 phases=3 bus1=b11.1.2.3 conn=wye model=1 kV=12.47 kW=0 kvar=0
New Load.Load12 phases=3 bus1=b12.1.2.3 conn=wye model=1 kV=12.47 kW=0 kvar=0
New Generator.PV1 phases=3 bus1=b4.1.2.3 kV=12.47 kW=0 kvar=0 model=1
New Generator.PV2 phases=3 bus1=b10.1.2.3 kV=12.47 kW=0 kvar=0 model=1
New Generator.Wind1 phases=3 bus1=b7.1.2.3 kV=12.47 kW=0 kvar=0 model=1
New Storage.BESS1 phases=3 bus1=b6.1.2.3 kV=12.47 kWrated=80 kWhrated=500 %stored=55 %reserve=20 %EffCharge=95 %EffDischarge=95 kW=0 kvar=0 dispmode=DEFAULT
New Load.EV1 phases=3 bus1=b12.1.2.3 conn=wye model=1 kV=12.47 kW=0 kvar=0
Set VoltageBases=[12.47]
CalcVoltageBases
Set MaxIterations=100
Solve
